example_uvm/pyglm/test_SOUTH_D1_Alburgh_curr.csv
# test_SOUTH_D1_Alburgh_curr.csv run at 2000-01-01 00:00:00 EST on 19628 links
link_name,currA_mag,currA_angle,currB_mag,currB_angle,currC_mag,currC_angle
line_span_9306,35.991076,-0.515256,47.220947,3.682149,60.559575,1.566640
line_span_215125,0.001091,1.517283,0.000000,0.000000,0.000000,0.000000
line_span_18210,0.561304,-0.541454,0.000000,0.000000,0.000000,0.000000
line_span_42866,0.353352,-0.550354,0.000000,0.000000,0.000000,0.000000
line_span_41370,0.000000,0.000000,0.000000,0.000000,0.681190,1.564349
line_span_42933,0.000000,0.000000,5.894651,3.706793,0.000000,0.000000
line_span_41305,54.011265,-0.523011,30.177928,3.705921,60.951803,1.587958
line_span_216654,51.670203,-0.525779,29.974467,3.700987,61.030212,1.585479
line_span_42881,20.404833,-0.549406,0.000000,0.000000,0.000000,0.000000
line_span_8082,0.000000,0.000000,0.000000,0.000000,0.094830,1.580202
line_span_42827,2.189915,-0.554699,0.000000,0.000000,0.000000,0.000000
line_span_4840,0.476106,-0.552239,0.000000,0.000000,0.000000,0.000000
line_span_42873,17.676533,-0.551059,0.000000,0.000000,0.000000,0.000000
line_span_7536,2.857243,-0.550621,0.279851,3.664929,4.970056,1.567655
line_span_41642,24.261548,-0.527853,0.901039,3.724048,17.258381,1.584096
line_span_42206,0.937317,-0.509203,0.291017,3.741669,0.126498,1.715375
line_span_5061,2.726524,-0.526390,2.439375,3.674654,1.837330,1.563843
line_span_13101,0.000000,0.000000,0.000000,0.000000,1.834386,1.556551
line_span_41558,2.758127,-0.532114,0.000000,0.000000,0.000000,0.000000
line_span_18746,0.000000,0.000000,0.352022,3.667494,0.000000,0.000000
line_span_42182,0.000000,0.000000,5.133428,3.664791,0.000000,0.000000
line_span_43120,2.959767,-0.554900,0.000000,0.000000,0.000000,0.000000
line_span_43092,1.175788,-0.551830,0.000000,0.000000,0.000000,0.000000
line_span_42102,0.101634,-0.501158,0.000000,0.000000,0.000000,0.000000
line_span_41906,0.258001,-0.499388,0.008876,-0.550576,0.006248,3.623704
line_span_14324,0.000000,0.000000,0.538967,3.664772,0.000000,0.000000
line_span_43054,0.000000,0.000000,0.000000,0.000000,10.005992,1.567942
line_span_7841,0.000000,0.000000,0.000000,0.000000,25.935005,1.558139
line_span_1040,0.000000,0.000000,0.185166,3.665114,0.000000,0.000000
line_span_41655,0.014776,1.526875,0.823928,3.705484,0.367388,1.612502
line_span_42028,15.053875,-0.513356,19.357444,3.679994,8.490155,1.580808
line_span_41954,0.000000,0.000000,1.962939,3.663574,0.000000,0.000000
line_span_42996,0.000000,0.000000,0.000000,0.000000,21.827347,1.572545
line_span_183441,54.250775,-0.522784,30.675854,3.705827,62.291431,1.587696
line_span_42798,0.000000,0.000000,0.000000,0.000000,1.706922,1.561026
line_span_41599,0.000000,0.000000,0.000000,0.000000,15.847897,1.592089
line_span_12939,19.084086,-0.529589,0.820905,3.712641,17.264315,1.583454
line_span_41606,0.000000,0.000000,0.000000,0.000000,0.623365,1.578900
line_span_42993,0.562189,-0.551471,0.000000,0.000000,0.000000,0.000000
line_span_17687,0.000000,0.000000,0.000000,0.000000,17.979656,1.569297
line_span_42818,0.000000,0.000000,1.743284,3.682885,0.000000,0.000000
line_span_41738,3.762270,-0.477876,0.000000,0.000000,0.000000,0.000000
line_span_42291,0.000000,0.000000,0.000000,0.000000,1.905775,1.568774
line_span_41600,0.000000,0.000000,0.000000,0.000000,15.848484,1.592018
line_span_43020,0.000000,0.000000,0.000000,0.000000,19.699731,1.569812
line_span_41420,0.000000,0.000000,0.742155,3.683619,0.000000,0.000000
line_span_42309,0.000000,0.000000,0.000000,0.000000,2.885918,1.571973
line_span_88205,0.000000,0.000000,0.000000,0.000000,0.786231,1.599523
line_span_42242,0.657919,-0.535021,0.000000,0.000000,0.000000,0.000000
line_span_41475,31.312337,-0.529206,2.814418,3.724186,55.430944,1.585230
line_span_18528,28.582399,-0.540221,8.230313,3.669915,10.493496,1.577420
line_span_9407,0.000000,0.000000,0.000000,0.000000,0.526087,1.568228
line_span_214875,0.333573,-0.550433,0.000000,0.000000,0.000000,0.000000
line_span_42376,0.008306,1.267983,0.000000,0.000000,0.000000,0.000000
line_span_183836,42.645384,-0.511021,50.202095,3.682893,65.305481,1.567551
line_span_41888,0.000000,0.000000,0.000000,0.000000,8.127390,1.555195
line_span_2468,0.645134,-0.549952,0.000000,0.000000,0.000000,0.000000
line_span_42307,0.000000,0.000000,0.000000,0.000000,3.824592,1.571957
line_span_42787,0.000000,0.000000,0.000000,0.000000,0.187300,1.569854
line_span_42013,18.484888,-0.516441,19.560284,3.680040,9.199257,1.579081
line_span_42735,0.000000,0.000000,5.642743,3.667599,0.000000,0.000000
line_span_40814,5.184392,-0.523979,0.000000,0.000000,0.000000,0.000000
line_span_15918,33.785436,-0.514131,47.224316,3.682012,58.801342,1.566876
line_span_53010,0.649261,-0.557098,0.000000,0.000000,0.000000,0.000000
line_span_41531,25.696608,-0.528087,1.430941,3.719737,52.387762,1.585280
line_span_42936,0.022385,-0.515568,0.000000,0.000000,0.000000,0.000000
line_span_9172,0.000000,0.000000,0.895005,3.663642,0.000000,0.000000
line_span_2435,0.000000,0.000000,0.000000,0.000000,17.497159,1.568971
line_span_5604,6.681293,-0.522427,0.000000,0.000000,0.000000,0.000000
line_span_42831,0.000000,0.000000,0.000000,0.000000,0.061839,1.581094
line_span_42317,0.000000,0.000000,0.000000,0.000000,0.131836,1.582032
line_span_7655,0.000000,0.000000,0.000000,0.000000,14.946742,1.581034
line_span_42999,0.000000,0.000000,0.000000,0.000000,21.162346,1.571053
line_span_9503,0.000000,0.000000,0.000000,0.000000,0.356176,1.566116
line_span_41668,0.000000,0.000000,0.000000,0.000000,6.551648,1.577384
line_span_42083,0.000000,0.000000,1.276935,3.780903,0.000000,0.000000
line_span_40841,0.480913,-0.530713,0.000000,0.000000,0.000000,0.000000
line_span_214438,27.559526,-0.528522,1.428753,3.722818,53.500302,1.585083
line_span_42394,0.000000,0.000000,1.913266,3.665555,0.000000,0.000000
line_span_42819,0.000000,0.000000,0.197915,3.667904,0.000000,0.000000
line_span_9207,0.000000,0.000000,0.000000,0.000000,1.837569,1.577906
line_span_43108,4.913935,-0.550578,0.000000,0.000000,0.000000,0.000000
line_span_42373,0.000000,0.000000,0.000000,0.000000,0.460271,1.568572
line_span_42124,0.000000,0.000000,0.000000,0.000000,0.120544,1.587946
line_span_42656,0.545307,-0.554277,0.000000,0.000000,0.000000,0.000000
line_span_8096,0.000000,0.000000,0.000000,0.000000,9.377526,1.580236
line_span_42154,22.906943,-0.538704,7.487245,3.666571,8.345992,1.576912
line_span_41702,0.000000,0.000000,0.000000,0.000000,7.584286,1.577893
line_span_43096,1.347764,-0.550476,0.000000,0.000000,0.000000,0.000000
line_span_42080,0.000000,0.000000,4.719354,3.696362,0.000000,0.000000
line_span_41400,49.755659,-0.527075,3.371154,3.718997,55.426938,1.585368
line_span_9422,14.518574,-0.513369,19.050981,3.679757,7.593066,1.582916
line_span_8634,0.000000,0.000000,0.000000,0.000000,17.497773,1.568906
line_span_42130,39.108642,-0.540277,13.747946,3.680432,22.729224,1.576748
line_span_13104,0.000000,0.000000,0.000000,0.000000,3.519015,1.553762
line_span_13176,9.601401,-0.520821,9.530222,3.688323,2.890094,1.572285
line_span_90282,51.606058,-0.523455,29.911988,3.705114,60.968244,1.587436
line_span_41780,35.990272,-0.515214,47.220145,3.682181,61.049837,1.566588
line_span_41732,42.089093,-0.511675,47.420976,3.683018,62.703884,1.567007
line_span_9421,15.033741,-0.513986,19.050281,3.679827,7.592387,1.583093
line_span_41995,0.669064,-0.528899,0.123919,-1.522158,0.004399,3.621481
line_span_89462,0.265619,-0.385700,0.000000,0.000000,0.000000,0.000000
line_span_41968,5.436588,-0.517276,0.000000,0.000000,0.000000,0.000000
line_span_19209,0.000000,0.000000,0.304507,3.665302,0.000000,0.000000
line_span_41582,0.258861,-0.532629,0.000000,0.000000,0.000000,0.000000
line_span_11001,2.871506,-0.483530,0.000000,0.000000,0.000000,0.000000
line_span_42599,5.733672,-0.537258,0.000000,0.000000,0.000000,0.000000
line_span_17099,3.803087,-0.524030,1.602455,3.685215,0.122795,1.817478
line_span_484,43.005101,-0.538494,13.688151,3.688940,25.601764,1.579599
line_span_19228,0.000000,0.000000,0.000000,0.000000,0.770219,1.554059
line_span_42353,33.840132,-0.540499,12.721135,3.678222,16.254892,1.576509
line_span_43082,0.001632,1.515217,0.000000,0.000000,0.000000,0.000000
line_span_15913,0.000000,0.000000,0.000000,0.000000,0.542000,1.567530
line_span_5183,0.000000,0.000000,0.000000,0.000000,12.695970,1.595555
line_span_3821,0.000000,0.000000,0.349683,3.660703,0.000000,0.000000
line_span_42391,0.929337,-0.508048,0.044022,-0.554599,0.042773,3.632199
line_span_41322,52.540964,-0.523248,30.184728,3.705470,60.958651,1.587740
line_span_12426,0.000000,0.000000,0.000000,0.000000,12.198142,1.579452
line_span_5997,4.042315,-0.551651,0.000000,0.000000,0.000000,0.000000
line_span_15449,2.259234,-0.521606,1.606226,3.680702,0.124901,1.754441
line_span_41574,1.594669,-0.528573,0.000000,0.000000,0.000000,0.000000
line_span_42084,0.000000,0.000000,1.277505,3.779786,0.000000,0.000000
line_span_42766,0.000000,0.000000,0.000000,0.000000,19.885985,1.565367
line_span_214551,12.395672,-0.513191,11.153232,3.690507,21.603052,1.571677
line_span_41824,0.000000,0.000000,0.716300,3.667095,0.000000,0.000000
line_span_17387,1.819649,-0.504487,0.000000,0.000000,0.000000,0.000000
line_span_226053,0.000000,0.000000,0.075829,3.742383,0.000000,0.000000
line_span_222617,12.480925,-0.551603,0.000000,0.000000,0.000000,0.000000
line_span_42004,11.633874,-0.513429,11.162263,3.688927,20.027037,1.572133
line_span_42051,0.000000,0.000000,9.247878,3.686179,0.000000,0.000000
line_span_41413,0.000000,0.000000,5.375646,3.717001,0.000000,0.000000
line_span_41482,31.193121,-0.529409,2.818107,3.721500,55.434623,1.585104
line_span_10627,49.757123,-0.527130,2.978174,3.723433,55.428354,1.585319
line_span_122246,1.112851,-0.479345,0.000000,0.000000,0.000000,0.000000
line_span_183471,42.647595,-0.511120,50.027023,3.682853,65.307745,1.567487
line_span_42861,19.126804,-0.550328,0.000000,0.000000,0.000000,0.000000
line_span_5761,0.000000,0.000000,0.670555,3.675591,0.000000,0.000000
line_span_42967,0.000000,0.000000,12.243848,3.662421,0.000000,0.000000
line_span_11934,0.000000,0.000000,0.000000,0.000000,3.183467,1.566999
line_span_41522,28.895213,-0.528935,1.692336,3.720633,53.583713,1.585143
line_span_223500,59.597484,-0.536341,20.797764,3.692266,22.825575,1.590962
line_span_219556,0.000000,0.000000,0.243740,3.692344,0.000000,0.000000
line_span_12409,4.785301,-0.515304,2.551057,3.689423,2.586613,1.568328
line_span_89316,1.445867,-0.440725,0.000000,0.000000,0.000000,0.000000
line_span_41361,11.670810,-0.521219,0.000000,0.000000,0.000000,0.000000
line_span_42420,0.000000,0.000000,0.000000,0.000000,5.909471,1.570772
line_span_41547,0.000000,0.000000,0.000000,0.000000,13.651127,1.580013
line_span_43050,0.000000,0.000000,0.000000,0.000000,1.417953,1.571050
line_span_42270,0.833515,-0.524665,0.006207,-0.549310,0.006147,3.620202
line_span_183448,54.245912,-0.522617,30.671239,3.706129,62.286734,1.587842
line_span_42408,0.000000,0.000000,0.000000,0.000000,24.992840,1.565489
line_span_4583,0.000000,0.000000,5.927008,3.666143,0.000000,0.000000
line_span_2222,0.000000,0.000000,11.756016,3.662591,0.000000,0.000000
line_span_42733,0.000000,0.000000,7.358622,3.666054,0.000000,0.000000
line_span_16314,0.000000,0.000000,4.911921,3.660390,0.000000,0.000000
line_span_41796,0.000000,0.000000,0.972174,3.731204,0.000000,0.000000
line_span_42298,0.000000,0.000000,0.000000,0.000000,1.992071,1.568632
line_span_16038,1.467106,-0.555529,0.000000,0.000000,0.000000,0.000000
line_span_41674,0.000000,0.000000,0.000000,0.000000,4.629052,1.576360
line_span_3675,0.000000,0.000000,0.000000,0.000000,0.820592,1.563704
line_span_42710,0.727403,-0.557864,0.000000,0.000000,0.000000,0.000000
line_span_42218,5.269826,-0.514318,5.019506,3.682350,16.178439,1.572106
line_span_42455,20.682607,-0.545428,0.000000,0.000000,0.000000,0.000000
line_span_41455,0.000000,0.000000,1.711669,3.671303,0.000000,0.000000
line_span_42412,22.826369,-0.539588,6.516403,3.664149,6.148092,1.577992
line_span_43128,4.921202,-0.549439,0.000000,0.000000,0.000000,0.000000
line_span_10297,0.000000,0.000000,0.000000,0.000000,0.533035,1.564259
line_span_41735,42.091341,-0.511777,47.200100,3.682992,62.142460,1.567012
line_span_41571,7.035955,-0.517432,0.000000,0.000000,0.164223,1.612669
line_span_41808,0.000000,0.000000,1.519910,3.716628,0.000000,0.000000
line_span_42361,4.209139,-0.548639,1.554422,3.724429,5.641073,1.568428
line_span_43000,0.000000,0.000000,0.000000,0.000000,21.163192,1.570979
line_span_52950,0.000000,0.000000,0.000000,0.000000,1.820762,1.561161
line_span_219540,0.778112,-0.527909,0.000000,0.000000,0.000000,0.000000
line_span_41390,50.241487,-0.526934,3.365636,3.722363,60.523779,1.584762
line_span_42405,0.000000,0.000000,0.000000,0.000000,2.385158,1.566066
line_span_10853,24.994699,-0.528082,1.154784,3.719640,17.256108,1.584343
line_span_6234,0.000000,0.000000,0.000000,0.000000,4.881968,1.571362
line_span_42812,0.000000,0.000000,4.864382,3.715049,0.000000,0.000000
line_span_15042,0.000000,0.000000,0.189532,3.667406,0.000000,0.000000
line_span_41344,0.000000,0.000000,0.000000,0.000000,3.695984,1.568252
line_span_42257,0.000000,0.000000,0.001974,-0.545342,0.000000,0.000000
line_span_3309,22.825255,-0.539496,7.082964,3.664107,6.146960,1.578341
line_span_42638,2.155023,-0.555431,0.000000,0.000000,0.000000,0.000000
line_span_3887,0.006217,1.535779,1.998677,3.670483,0.006148,3.621209
line_span_42199,0.000000,0.000000,0.000000,0.000000,13.387114,1.571694
line_span_12835,0.000000,0.000000,0.000000,0.000000,5.281707,1.555631
line_span_42134,0.000000,0.000000,2.778747,3.721289,0.000000,0.000000
line_span_217121,0.000000,0.000000,0.000000,0.000000,6.705331,1.577549
line_span_42652,0.595259,-0.549150,0.000000,0.000000,0.000000,0.000000
line_span_223713,20.161127,-0.541785,0.000000,0.000000,0.000000,0.000000
line_span_90069,0.000000,0.000000,0.121476,-1.552358,0.000000,0.000000
line_span_42262,0.000000,0.000000,0.000000,0.000000,0.410333,1.553106
line_span_41745,35.978175,-0.514572,47.208055,3.682671,61.635373,1.566839
line_span_41859,0.000000,0.000000,1.612462,3.670055,0.000000,0.000000
line_span_5472,0.000000,0.000000,0.351549,3.669993,0.000000,0.000000
line_span_215944,105.082941,-0.536172,71.323364,3.688420,88.470798,1.579574
line_span_42646,1.598325,-0.551309,0.000000,0.000000,0.000000,0.000000
line_span_70896,0.000005,1.529566,0.000005,-0.555090,0.000005,3.621306
line_span_41758,35.987437,-0.515063,47.217313,3.682296,61.584845,1.566561
...
tpx_span_53847,0.000000,-1.331427,0.000000,4.699627,0.000000,0.000000
tpx_span_74867,0.000000,4.642255,0.000000,3.839597,0.000000,0.000000
tpx_span_72093,0.000000,0.000000,0.000000,0.000000,0.000000,0.000000
tpx_span_74313,0.000000,4.014493,0.000000,-1.348792,0.000000,0.000000
tpx_span_72901,0.000000,-1.362909,0.000000,2.216259,0.000000,0.000000
tpx_span_53835,0.000000,0.000000,0.000000,0.000000,0.000000,0.000000
tpx_span_73220,0.000000,-1.314371,0.000000,-0.394201,0.000000,0.000000
tpx_span_108814,0.000000,0.000000,0.000000,0.000000,0.000000,0.000000
tpx_span_69334,0.000000,1.525825,0.000000,1.525825,0.000000,0.000000
tpx_span_214545,0.000000,4.203770,0.000000,4.203770,0.000000,0.000000
tpx_span_71879,0.000000,-1.388981,0.000000,1.315036,0.000000,0.000000
tpx_span_215321,0.000000,1.062177,0.000000,1.062177,0.000000,0.000000
tpx_span_94664,0.000000,4.456629,0.000000,1.752612,0.000000,0.000000
tpx_span_59045,0.000000,-1.388981,0.000000,1.315036,0.000000,0.000000
tpx_span_72370,0.000000,4.259861,0.000000,-1.301422,0.000000,0.000000
tpx_span_72852,0.000000,-1.096622,0.000000,-1.096622,0.000000,0.000000
tpx_span_216449,0.000000,0.598529,0.000000,0.598529,0.000000,0.000000
tpx_span_54972,0.000000,0.181815,0.000000,2.885832,0.000000,0.000000
tpx_span_70884,0.000000,2.395451,0.000000,4.648299,0.000000,0.000000
tpx_span_185428,0.000000,2.044971,0.000000,2.044971,0.000000,0.000000
tpx_span_68724,0.000000,1.404895,0.000000,1.285957,0.000000,0.000000
tpx_span_214528,0.000000,2.632973,0.000000,2.632973,0.000000,0.000000
tpx_span_73245,0.000000,-0.508619,0.000000,-0.508619,0.000000,0.000000
tpx_span_154230,0.000000,4.021922,0.000000,4.298551,0.000000,0.000000
tpx_span_57612,0.000000,3.937800,0.000000,1.604060,0.000000,0.000000
tpx_span_69306,0.000000,1.062177,0.000000,1.062177,0.000000,0.000000
tpx_span_188643,0.000000,3.401986,0.000000,3.880082,0.000000,0.000000
tpx_span_68902,0.000000,-0.314843,0.000000,2.821228,0.000000,0.000000
tpx_span_215584,0.000000,-0.787679,0.000000,-1.428035,0.000000,0.000000
tpx_span_54189,0.000000,3.226997,0.000000,-0.726458,0.000000,0.000000
tpx_span_74881,0.000000,2.885832,0.000000,0.181815,0.000000,0.000000
tpx_span_99185,0.000000,-1.449203,0.000000,3.390415,0.000000,0.000000
tpx_span_154637,0.000000,-0.508619,0.000000,-0.508619,0.000000,0.000000
tpx_span_53858,0.000000,4.203770,0.000000,4.203770,0.000000,0.000000
tpx_span_54182,0.000000,3.418371,0.000000,3.418371,0.000000,0.000000
tpx_span_56361,0.000000,4.693628,0.000000,1.364597,0.000000,0.000000
tpx_span_73569,0.000000,-1.321974,0.000000,0.121593,0.000000,0.000000
tpx_span_59024,0.000000,0.000000,0.000000,0.000000,0.000000,0.000000
tpx_span_72878,0.000000,3.880082,0.000000,3.401986,0.000000,0.000000
tpx_span_57596,0.000000,1.437196,0.000000,4.578788,0.000000,0.000000
tpx_span_229391,0.000000,2.467394,0.000000,0.398512,0.000000,0.000000
tpx_span_55360,0.000000,-0.334241,0.000000,3.853888,0.000000,0.000000
tpx_span_215158,0.000000,2.130868,0.000000,1.468076,0.000000,0.000000
tpx_span_215009,0.000000,-1.362909,0.000000,2.216259,0.000000,0.000000
tpx_span_218977,0.000000,0.000000,0.000000,0.000000,0.000000,0.000000
tpx_span_58128,0.000000,-0.568023,0.000000,1.951747,0.000000,0.000000
tpx_span_64221,0.000000,3.937800,0.000000,1.604060,0.000000,0.000000
tpx_span_74801,0.000000,2.153769,0.000000,4.118762,0.000000,0.000000
tpx_span_225216,0.000000,3.218078,0.000000,-0.367713,0.000000,0.000000
tpx_span_73799,0.000000,2.349897,0.000000,2.257490,0.000000,0.000000
tpx_span_70882,0.000000,4.648299,0.000000,2.395451,0.000000,0.000000
tpx_span_72133,0.000000,2.656675,0.000000,0.386796,0.000000,0.000000
tpx_span_56526,0.000000,4.667417,0.000000,4.667417,0.000000,0.000000
tpx_span_218045,0.000000,4.666939,0.000000,4.478408,0.000000,0.000000
tpx_span_73657,0.000000,4.429178,0.000000,-1.093009,0.000000,0.000000
tpx_span_73871,0.000000,2.904632,0.000000,2.965345,0.000000,0.000000
tpx_span_230020,0.000000,-1.388981,0.000000,1.315036,0.000000,0.000000
tpx_span_94167,0.000000,3.965019,0.000000,4.312166,0.000000,0.000000
tpx_span_130627,0.000000,4.427550,0.000000,4.546488,0.000000,0.000000
tpx_span_220151,0.000000,3.226013,0.000000,2.090802,0.000000,0.000000
tpx_span_57019,0.000000,-1.537533,0.000000,0.796208,0.000000,0.000000
tpx_span_152224,0.000000,3.232138,0.000000,2.453332,0.000000,0.000000
tpx_span_57375,0.000000,-0.987824,0.000000,0.977170,0.000000,0.000000
tpx_span_69338,0.000000,0.181815,0.000000,2.885832,0.000000,0.000000
tpx_span_229179,0.000000,2.867623,0.000000,-0.303321,0.000000,0.000000
tpx_span_57388,0.000000,2.253984,0.000000,-0.132138,0.000000,0.000000
tpx_span_59011,0.000000,2.319616,0.000000,4.410984,0.000000,0.000000
tpx_span_183835,0.000000,1.426268,0.000000,2.248042,0.000000,0.000000
tpx_span_73311,0.000000,2.953087,0.000000,-0.393363,0.000000,0.000000
tpx_span_216601,0.000000,1.764747,0.000000,1.559322,0.000000,0.000000
tpx_span_72925,0.000000,0.486606,0.000000,3.275774,0.000000,0.000000
tpx_span_73435,0.000000,1.252169,0.000000,-0.389952,0.000000,0.000000
tpx_span_71987,0.000000,4.203770,0.000000,4.203770,0.000000,0.000000
tpx_span_71668,0.000000,2.885832,0.000000,0.181815,0.000000,0.000000
tpx_span_228761,0.000000,0.000000,0.000000,0.000000,0.000000,0.000000
tpx_span_228777,0.000000,3.740122,0.000000,3.740122,0.000000,0.000000
tpx_span_72049,0.000000,1.012383,0.000000,1.101923,0.000000,0.000000
tpx_span_71203,0.000000,2.216259,0.000000,-1.362909,0.000000,0.000000
tpx_span_154625,0.000000,2.885832,0.000000,0.181815,0.000000,0.000000
tpx_span_57797,0.000000,-0.121070,0.000000,2.582948,0.000000,0.000000
tpx_span_215550,0.000000,-0.168054,0.000000,2.360572,0.000000,0.000000
tpx_span_73200,0.000000,4.693628,0.000000,1.364597,0.000000,0.000000
tpx_span_167044,0.000000,0.818499,0.000000,-1.375191,0.000000,0.000000
tpx_span_205454,0.000000,3.624626,0.000000,-0.046908,0.000000,0.000000
tpx_span_55210,0.000000,0.977170,0.000000,-0.987824,0.000000,0.000000
tpx_span_57595,0.000000,3.077933,0.000000,-0.185221,0.000000,0.000000
tpx_span_65907,0.000000,0.755849,0.000000,3.595187,0.000000,0.000000
tpx_span_204642,0.000000,0.227466,0.000000,0.702621,0.000000,0.000000
tpx_span_72579,0.000000,-1.177362,0.000000,1.432050,0.000000,0.000000
tpx_span_74909,0.000000,3.285410,0.000000,3.253976,0.000000,0.000000
tpx_span_122249,0.000000,4.371438,0.000000,1.084404,0.000000,0.000000
tpx_span_95197,0.000000,0.000000,0.000000,0.000000,0.000000,0.000000
tpx_span_167045,0.000000,1.437196,0.000000,4.578788,0.000000,0.000000
tpx_span_66960,0.000000,3.323408,0.000000,-0.255760,0.000000,0.000000
tpx_span_73223,0.000000,4.384722,0.000000,3.000643,0.000000,0.000000
tpx_span_69337,0.000000,0.000000,0.000000,0.000000,0.000000,0.000000
tpx_span_56297,0.000000,0.000000,0.000000,0.000000,0.000000,0.000000
tpx_span_71861,0.000000,1.752612,0.000000,4.456629,0.000000,0.000000
tpx_span_54979,0.000000,0.650569,0.000000,2.435821,0.000000,0.000000
tpx_span_72635,0.000000,2.028905,0.000000,2.784939,0.000000,0.000000
tpx_span_71210,0.000000,3.654250,0.000000,4.477036,0.000000,0.000000
tpx_span_214757,0.000000,1.752612,0.000000,4.456629,0.000000,0.000000
tpx_span_103798,0.000000,0.251712,0.000000,3.930484,0.000000,0.000000
tpx_span_64118,0.000000,2.632973,0.000000,2.632973,0.000000,0.000000
tpx_span_71255,0.000000,2.885832,0.000000,0.181815,0.000000,0.000000
tpx_span_57600,0.000000,3.880082,0.000000,3.401986,0.000000,0.000000
tpx_span_136626,0.000000,0.000000,0.000000,0.000000,0.000000,0.000000
tpx_span_68719,0.000000,-1.348792,0.000000,4.014493,0.000000,0.000000
tpx_span_73189,0.000000,-0.746142,0.000000,1.506707,0.000000,0.000000
tpx_span_71850,0.000000,4.057080,0.000000,4.287967,0.000000,0.000000
tpx_span_72391,0.000000,0.000000,0.000000,0.000000,0.000000,0.000000
tpx_span_70098,0.000000,1.778684,0.000000,-0.925334,0.000000,0.000000
tpx_span_71507,0.000000,1.012383,0.000000,1.101923,0.000000,0.000000
tpx_span_153432,0.000000,0.181815,0.000000,2.885832,0.000000,0.000000
tpx_span_71402,0.000000,-0.140950,0.000000,1.243129,0.000000,0.000000
tpx_span_72037,0.000000,0.032692,0.000000,3.119815,0.000000,0.000000
tpx_span_70067,0.000000,-0.359232,0.000000,3.341315,0.000000,0.000000
tpx_span_73261,0.000000,3.323408,0.000000,-0.255760,0.000000,0.000000
tpx_span_58147,0.000000,-1.362909,0.000000,2.216259,0.000000,0.000000
tpx_span_70864,0.000000,1.920679,0.000000,-0.417744,0.000000,0.000000
tpx_span_74917,0.000000,0.000000,0.000000,0.000000,0.000000,0.000000
tpx_span_53616,0.000000,0.823426,0.000000,1.170573,0.000000,0.000000
tpx_span_214576,0.000000,-1.388981,0.000000,1.315036,0.000000,0.000000
tpx_span_71871,0.000000,1.778684,0.000000,-0.925334,0.000000,0.000000
tpx_span_188641,0.000000,4.160562,0.000000,0.147682,0.000000,0.000000
tpx_span_218959,0.000000,4.146383,0.000000,4.248210,0.000000,0.000000
tpx_span_72458,0.000000,-0.322752,0.000000,0.147113,0.000000,0.000000
tpx_span_99176,0.000000,0.561916,0.000000,4.293848,0.000000,0.000000
tpx_span_229924,0.000000,4.014493,0.000000,-1.348792,0.000000,0.000000
tpx_span_74953,0.000000,2.076301,0.000000,-0.324360,0.000000,0.000000
tpx_span_71258,0.000000,3.880082,0.000000,3.401986,0.000000,0.000000
tpx_span_71869,0.000000,0.000000,0.000000,0.000000,0.000000,0.000000
tpx_span_103783,0.000000,-0.255760,0.000000,3.323408,0.000000,0.000000
tpx_span_97456,0.000000,1.062177,0.000000,1.062177,0.000000,0.000000
tpx_span_73184,0.000000,0.872900,0.000000,1.792801,0.000000,0.000000
tpx_span_74915,0.000000,3.703508,0.000000,1.152255,0.000000,0.000000
tpx_span_56326,0.000000,-1.348792,0.000000,4.014493,0.000000,0.000000
tpx_span_59838,0.000000,-0.536407,0.000000,-0.415750,0.000000,0.000000
tpx_span_57393,0.000000,-0.544743,0.000000,3.153640,0.000000,0.000000
tpx_span_66955,0.000000,0.561916,0.000000,4.293848,0.000000,0.000000
tpx_span_72953,0.000000,-1.189846,0.000000,2.573570,0.000000,0.000000
tpx_span_225215,0.000000,0.000000,0.000000,0.000000,0.000000,0.000000
tpx_span_73729,0.000000,-1.050791,0.000000,0.084420,0.000000,0.000000
tpx_span_73187,0.000000,-1.388981,0.000000,1.315036,0.000000,0.000000
tpx_span_71715,0.000000,1.346378,0.000000,1.566238,0.000000,0.000000
tpx_span_218901,0.000000,1.287586,0.000000,2.048583,0.000000,0.000000
tpx_span_53609,0.000000,4.494824,0.000000,1.583183,0.000000,0.000000
tpx_span_72822,0.000000,2.853780,0.000000,0.128073,0.000000,0.000000
tpx_span_53851,0.000000,1.287586,0.000000,2.048583,0.000000,0.000000
tpx_span_216656,0.000000,3.039431,0.000000,0.334357,0.000000,0.000000
tpx_span_71971,0.000000,-0.514499,0.000000,-0.737938,0.000000,0.000000
tpx_span_68470,0.000000,-0.654309,0.000000,1.262146,0.000000,0.000000
tpx_span_214575,0.000000,4.667417,0.000000,4.667417,0.000000,0.000000
tpx_span_159026,0.000000,-0.289265,0.000000,-1.182362,0.000000,0.000000
tpx_span_73888,0.000000,3.566103,0.000000,0.080139,0.000000,0.000000
tpx_span_74767,0.000000,3.483920,0.000000,-0.595996,0.000000,0.000000
tpx_span_73645,0.000000,1.287586,0.000000,2.048583,0.000000,0.000000
tpx_span_72421,0.000000,-0.064466,0.000000,-1.469427,0.000000,0.000000
tpx_span_68731,0.000000,1.778684,0.000000,-0.925334,0.000000,0.000000
tpx_span_70065,0.000000,1.125232,0.000000,0.969485,0.000000,0.000000
tpx_span_59031,0.000000,4.429178,0.000000,-1.093009,0.000000,0.000000
tpx_span_73534,0.000000,-0.071294,0.000000,2.510957,0.000000,0.000000
tpx_span_153430,0.000000,1.412775,0.000000,1.914635,0.000000,0.000000
tpx_span_159039,0.000000,-1.449203,0.000000,3.390415,0.000000,0.000000
tpx_span_94648,0.000000,-0.190807,0.000000,0.143922,0.000000,0.000000
tpx_span_144634,0.000000,0.182246,0.000000,1.743817,0.000000,0.000000
tpx_span_177439,0.000000,4.546488,0.000000,4.427550,0.000000,0.000000
tpx_span_213878,0.000000,1.728527,0.000000,0.589035,0.000000,0.000000
tpx_span_58367,0.000000,1.672166,0.000000,3.077127,0.000000,0.000000
tpx_span_215331,0.000000,1.194695,0.000000,-1.166361,0.000000,0.000000
tpx_span_68908,0.000000,-0.255760,0.000000,3.323408,0.000000,0.000000
tpx_span_72419,0.000000,0.000000,0.000000,0.000000,0.000000,0.000000
tpx_span_215350,0.000000,2.481132,0.000000,-0.609573,0.000000,0.000000
tpx_span_65683,0.000000,2.410020,0.000000,0.395278,0.000000,0.000000
tpx_span_62255,0.000000,1.604060,0.000000,3.937800,0.000000,0.000000
tpx_span_74676,0.000000,2.416836,0.000000,2.391153,0.000000,0.000000
tpx_span_220129,0.000000,-1.534301,0.000000,-0.033968,0.000000,0.000000
tpx_span_70893,0.000000,1.752612,0.000000,4.456629,0.000000,0.000000
tpx_span_207041,0.000000,3.279835,0.000000,1.438030,0.000000,0.000000
tpx_span_69365,0.000000,3.880082,0.000000,3.401986,0.000000,0.000000
tpx_span_214385,0.000000,3.922110,0.000000,1.189174,0.000000,0.000000
tpx_span_215922,0.000000,2.741370,0.000000,2.394222,0.000000,0.000000
tpx_span_73167,0.000000,4.494824,0.000000,1.583183,0.000000,0.000000
tpx_span_216417,0.000000,-1.339919,0.000000,3.343068,0.000000,0.000000
tpx_span_71270,0.000000,1.152255,0.000000,3.703508,0.000000,0.000000
tpx_span_73256,0.000000,0.000000,0.000000,0.000000,0.000000,0.000000
tpx_span_155429,0.000000,-0.508619,0.000000,-0.508619,0.000000,0.000000
tpx_span_71716,0.000000,2.784939,0.000000,2.028905,0.000000,0.000000
tpx_span_230027,0.000000,0.281917,0.000000,1.312564,0.000000,0.000000
tpx_span_72877,0.000000,1.285957,0.000000,1.404895,0.000000,0.000000
tpx_span_53945,0.000000,4.487698,0.000000,1.606017,0.000000,0.000000
tpx_span_54844,0.000000,3.469502,0.000000,-1.357354,0.000000,0.000000
tpx_span_216358,0.000000,3.480624,0.000000,1.574996,0.000000,0.000000
tpx_span_214524,0.000000,2.822965,0.000000,1.180845,0.000000,0.000000
tpx_span_69441,0.000000,4.287967,0.000000,4.057080,0.000000,0.000000
tpx_span_68478,0.000000,-0.177040,0.000000,3.136925,0.000000,0.000000
tpx_span_217138,0.000000,0.145772,0.000000,1.191628,0.000000,0.000000
tpx_span_73875,0.000000,4.136062,0.000000,4.254162,0.000000,0.000000
tpx_span_71988,0.000000,4.456629,0.000000,1.752612,0.000000,0.000000
tpx_span_57775,0.000000,1.269392,0.000000,-0.821977,0.000000,0.000000
...
swt_28-3-3d6f,0.000000,0.000000,0.000000,0.000000,1.123169,1.654883
swt_28-2-3f2_d1__d1__d1_1,0.000000,0.000000,2.001617,3.667753,0.000000,0.000000
swt_28-1-1b2c,0.477102,-0.496728,0.000000,0.000000,0.000000,0.000000
swt_28-1-1c4d,2.305502,-0.551853,0.000000,0.000000,0.000000,0.000000
swt_28-1-1a18,3.014893,-0.547318,0.000000,0.000000,0.000000,0.000000
swt_28-3-1f4e,0.000000,0.000000,0.000000,0.000000,1.712284,1.566683
swt_28-2-1d2e,0.000000,0.000000,0.786955,3.699713,0.000000,0.000000
swt_28-2-1f2a,0.000000,0.000000,0.227476,3.665729,0.000000,0.000000
swt_28-3-4e,0.000000,0.000000,0.000000,0.000000,16.093610,1.591969
swt_28-1-3y31,0.656729,-0.531688,0.000000,0.000000,0.000000,0.000000
swt_28-3-3g5,0.000000,0.000000,0.000000,0.000000,0.270055,1.774161
swt_28-2-1a32,0.000000,0.000000,0.567752,3.659737,0.000000,0.000000
swt_28-1-1d5k,0.387486,-0.550973,0.000000,0.000000,0.000000,0.000000
swt_28-1-4a10,0.071946,-0.517602,0.000000,0.000000,0.000000,0.000000
swt_28-2-4a13,0.000000,0.000000,0.265812,3.692789,0.000000,0.000000
swt_28-1-1a24b,2.857993,-0.551105,0.000000,0.000000,0.000000,0.000000
swt_28-1-1f3b,0.471115,-0.482757,0.000000,0.000000,0.000000,0.000000
swt_28-1-3d6j,0.260884,-0.520857,0.000000,0.000000,0.000000,0.000000
swt_28-1-1b2a,0.760931,-0.552896,0.000000,0.000000,0.000000,0.000000
swt_28-3-3a37,0.000522,1.542157,0.000000,0.000000,0.336527,1.570681
swt_28-2-3y8,0.000000,0.000000,0.196090,3.675901,0.000000,0.000000
swt_28-2-1a10f,0.000000,0.000000,0.126848,3.673591,0.000000,0.000000
swt_28-1-1d5f,0.903333,-0.546363,0.000000,0.000000,0.000000,0.000000
swt_28-3-1e3,0.000000,0.000000,0.000000,0.000000,1.615438,1.602728
swt_28-3-1e4c,0.000000,0.000000,0.000000,0.000000,5.467152,1.562468
swt_28-1-1d5a,20.404439,-0.549371,0.000000,0.000000,0.000000,0.000000
swt_28_d1_4ax1-a,54.255152,-0.522934,30.175124,3.706107,60.948968,1.588048
swt_28-3-3f1,0.000000,0.000000,0.000000,0.000000,1.692229,1.553916
swt_28-1-1a16,0.204171,-0.543745,0.000000,0.000000,0.000000,0.000000
swt_28-3-1b1a,0.000000,0.000000,0.000000,0.000000,3.657717,1.569701
swt_28-3-1f4c1,0.000000,0.000000,0.000000,0.000000,0.665583,1.587637
swt_28-1-3d6c,0.590494,-0.434553,0.000000,0.000000,0.000000,0.000000
swt_28-1-3y15,0.668101,-0.531928,0.000000,0.000000,0.000000,0.000000
swt_28-1-4d5,12.349480,-0.522113,0.000000,0.000000,0.000000,0.000000
swt_28-7-1a17,0.064539,1.518629,0.066850,-0.554474,0.065545,3.631483
swt_28_d1_1d1ex1-a,0.000000,0.000000,0.465591,3.687321,0.000000,0.000000
swt_28-1-3d6a,1.289767,-0.504069,0.000000,0.000000,0.000000,0.000000
swt_28-2-1d1h,0.000000,0.000000,0.702023,3.659116,0.000000,0.000000
swt_28-2-3y12a,0.000000,0.000000,0.352022,3.667494,0.000000,0.000000
swt_28_d1_1f4x-a,0.000000,0.000000,0.000000,0.000000,17.497773,1.568906
swt_28_d1_4ax-a,54.567187,-0.522428,30.665684,3.706493,62.281053,1.588018
swt_28-3-3g4,0.000000,0.000000,0.000000,0.000000,0.658575,1.749736
swt_28-1-3e2,0.480454,-0.528957,0.000000,0.000000,0.000000,0.000000
swt_28-7-1a20,0.929088,-0.507499,0.046947,4.652262,0.043346,3.632198
swt_28-7-1a25,0.001443,1.517314,0.001505,-0.554789,0.830227,1.565121
swt_28-1-3y7,0.222304,-0.524712,0.000000,0.000000,0.000000,0.000000
swt_28-2-3y29,0.000000,0.000000,0.092208,3.681170,0.000000,0.000000
swt_28-7-3y9,0.668259,-0.526657,0.124883,-1.510919,0.006082,3.621479
swt_28-2-4b4,0.000000,0.000000,0.596098,3.722801,0.000000,0.000000
swt_28-7-3d6,3.835680,-0.496754,8.505787,3.669536,3.355865,1.596320
swt_28-2-1f2b5,0.000000,0.000000,4.727393,3.659957,0.000000,0.000000
swt_28-1-3e3b1,0.720802,-0.472564,0.000000,0.000000,0.000000,0.000000
swt_28-2-3b1,0.000000,0.000000,13.323197,3.678105,0.000000,0.000000
swt_28-3-3c1,0.000000,0.000000,0.000000,0.000000,25.935005,1.558139
swt_28-3-4e1,0.000000,0.000000,0.000000,0.000000,0.643225,1.578195
swt_28-3-3c5a,0.000000,0.000000,0.000000,0.000000,1.427882,1.554119
swt_28-1-1f7c,3.989393,-0.503107,0.000000,0.000000,0.000000,0.000000
swt_28-1-1a12,0.796362,-0.551020,0.000000,0.000000,0.000000,0.000000
swt_28-1-3y26,0.457872,-0.529592,0.000000,0.000000,0.000000,0.000000
swt_28-2-1d2d,0.000000,0.000000,0.915682,3.816574,0.000000,0.000000
swt_28-1-1f5d,4.921202,-0.549439,0.000000,0.000000,0.000000,0.000000
swt_28-7-1a33,0.008031,1.517051,0.008389,-0.554896,0.008137,3.633394
swt_28-7-3y,12.704871,-0.512901,12.109309,3.689164,21.918520,1.571836
swt_28-2-1a10h,0.000000,0.000000,0.534386,3.933925,0.000000,0.000000
swt_28-3-4a1,0.000000,0.000000,0.000000,0.000000,1.347022,1.565682
swt_28-1-4g2c,0.000000,0.000000,0.000000,0.000000,0.000000,0.000000
swt_28-2-3e4c,0.000000,0.000000,0.404649,3.665723,0.000000,0.000000
swt_28-3-1e1,0.000000,0.000000,0.000000,0.000000,0.777821,1.560966
swt_28-1-4a14,0.504793,-0.533283,0.000000,0.000000,0.000000,0.000000
swt_28-3-3y5,0.000000,0.000000,0.000000,0.000000,0.115961,1.564334
swt_28-1-4a3,1.287881,-0.524997,0.000000,0.000000,0.000000,0.000000
swt_28-1-4a2,0.189522,-0.513655,0.000000,0.000000,0.000000,0.000000
swt_28-2-1a10a2,0.000000,0.000000,1.398697,3.778817,0.000000,0.000000
swt_28-3-1a11b,0.000000,0.000000,0.000000,0.000000,2.622267,1.601516
swt_28-3-1e,0.000000,0.000000,0.000000,0.000000,24.992382,1.565523
swt_28-3-4j,0.000000,0.000000,0.000000,0.000000,0.000000,0.000000
swt_28-1-1c4d1,0.851275,-0.559536,0.000000,0.000000,0.000000,0.000000
swt_28-2-1d2c,0.000000,0.000000,0.820517,3.743461,0.000000,0.000000
swt_28-3-4e3,0.000000,0.000000,0.000000,0.000000,1.086083,1.700029
swt_28-3-3a1,0.000000,0.000000,0.000000,0.000000,0.563728,1.558890
swt_28-3-1a6e,0.000000,0.000000,0.000000,0.000000,0.292876,1.747078
swt_28-2-4b2c,0.000000,0.000000,0.725254,3.670512,0.000000,0.000000
swt_28-2-3y22,0.000000,0.000000,0.230088,3.761031,0.000000,0.000000
swt_28-3-3d1,0.000000,0.000000,0.000000,0.000000,0.483152,1.560171
swt_28-2-1d1e,0.000000,0.000000,2.331657,3.669711,0.000000,0.000000
swt_28-3-1a11a,0.000000,0.000000,0.000000,0.000000,2.654838,1.566702
swt_28-2-1d2,0.000000,0.000000,5.894150,3.706968,0.000000,0.000000
swt_28-2-3d7,0.000000,0.000000,0.771381,3.691606,0.000000,0.000000
swt_28-2-3y9a,0.000000,0.000000,0.121476,-1.552358,0.000000,0.000000
swt_28-1-1d5e,13.010965,-0.550666,0.000000,0.000000,0.000000,0.000000
swt_28-3-1f4b,0.000000,0.000000,0.000000,0.000000,0.391681,1.572550
swt_28-1-3y20a,0.521947,-0.507252,0.000000,0.000000,0.000000,0.000000
swt_28-1-1f5,19.842491,-0.549897,0.000000,0.000000,0.000000,0.000000
swt_28-2-1d1a,0.000000,0.000000,0.643669,3.656903,0.000000,0.000000
swt_28-2-1f2b1,0.000000,0.000000,0.545376,3.661223,0.000000,0.000000
swt_28-1-3a2,4.528838,-0.487309,0.000000,0.000000,0.000000,0.000000
swt_28-1-1f5e,1.620730,-0.526316,0.000000,0.000000,0.000000,0.000000
swt_28-3-1e4,0.000000,0.000000,0.000000,0.000000,13.115710,1.561459
swt_28-2-1d1,0.000000,0.000000,10.053453,3.665616,0.000000,0.000000
swt_28-1-4j3a,0.150309,-0.455415,0.000000,0.000000,0.000000,0.000000
swt_28_d1_1a50x-a,0.016295,1.522615,0.016774,-0.553687,0.016404,3.631264
swt_28-3-3c4,0.000000,0.000000,0.000000,0.000000,0.064256,3.295033
swt_28-1-1c3,0.726696,-0.556091,0.000000,0.000000,0.000000,0.000000
swt_28-2-1d1c,0.000000,0.000000,0.189532,3.667406,0.000000,0.000000
swt_28-1-1b2b,0.107982,0.336729,0.000000,0.000000,0.000000,0.000000
swt_28-1-1c1c,0.456432,-0.552080,0.000000,0.000000,0.000000,0.000000
swt_28_d1_1d1ex2-a,0.000000,0.000000,0.927013,3.664424,0.000000,0.000000
swt_28-2-1d2a,0.000000,0.000000,0.468076,3.663962,0.000000,0.000000
swt_28-3-1a21a,0.000000,0.000000,0.000000,0.000000,0.082705,1.607754
swt_28_d1_1fx2-a,29.128965,-0.542905,20.785803,3.671633,21.818550,1.573294
swt_28-3-1a27,0.000000,0.000000,0.000000,0.000000,0.094830,1.580202
swt_28-1-4d6,2.905411,-0.533027,0.000000,0.000000,0.000000,0.000000
swt_28-1-1d5g,0.762975,-0.555784,0.000000,0.000000,0.000000,0.000000
swt_28-7-1a20b,0.039167,1.517626,0.040722,-0.554599,0.039566,3.632199
swt_28-1-4d3,0.671570,-0.538866,0.000000,0.000000,0.000000,0.000000
swt_28_d1_3ax-a,42.644408,-0.510978,50.201111,3.682930,65.304480,1.567580
swt_28-3-1a6d,0.000000,0.000000,0.000000,0.000000,0.519296,1.568374
swt_28-2-1a1,0.000000,0.000000,2.278532,3.680619,0.000000,0.000000
swt_28-2-4b2b,0.000000,0.000000,0.736513,3.668629,0.000000,0.000000
swt_28-2-3b,0.000000,0.000000,13.322580,3.678193,0.000000,0.000000
swt_28-3-1a21,0.000000,0.000000,0.000000,0.000000,5.784467,1.571029
swt_28-3-3d3,0.000000,0.000000,0.000000,0.000000,0.711240,1.553277
swt_28-1-4j3b,0.102791,0.096711,0.000000,0.000000,0.000000,0.000000
swt_28-3-4e5,0.000000,0.000000,0.000000,0.000000,0.821256,1.600498
swt_28-3-4e4,0.000000,0.000000,0.000000,0.000000,2.916529,1.574538
swt_28-1-1d5c,3.149170,-0.552224,0.000000,0.000000,0.000000,0.000000
swt_28-7-3e5,0.000000,0.000000,0.120995,3.682527,0.000000,0.000000
swt_28-2-1d1d,0.000000,0.000000,0.661495,3.660151,0.000000,0.000000
swt_28-1-1c6,0.411812,-0.546743,0.000000,0.000000,0.000000,0.000000
swt_28-3-4a6,0.000000,0.000000,0.000000,0.000000,0.399108,1.668261
swt_28-3-3d6d,0.000000,0.000000,0.000000,0.000000,0.438039,1.563425
swt_28-2-3d6b,0.000000,0.000000,8.521432,3.666123,0.000000,0.000000
swt_28-2-3y12,0.000000,0.000000,0.351549,3.669993,0.000000,0.000000
swt_28-1-1f7a,0.327948,-0.546745,0.000000,0.000000,0.000000,0.000000
swt_28-3-4h1a,0.000000,0.000000,0.000000,0.000000,7.145941,1.577952
swt_28-2-3b1e2,0.000000,0.000000,0.716300,3.667095,0.000000,0.000000
swt_28_d1_1f5dx-a,0.362746,-0.552973,0.000000,0.000000,0.000000,0.000000
swt_28-2-3b1f4,0.000000,0.000000,0.973037,3.729283,0.000000,0.000000
swt_28-2-1a23a,0.000000,0.000000,0.157621,3.742179,0.000000,0.000000
swt_28-2-1d1b,0.000000,0.000000,0.543228,3.660534,0.000000,0.000000
swt_28-3-3y23,0.000000,0.000000,0.000000,0.000000,0.242432,1.568412
swt_28-1-3y27,0.776609,-0.533432,0.000000,0.000000,0.000000,0.000000
swt_28-3-3e6,0.000000,0.000000,0.000000,0.000000,1.895995,1.557860
swt_28-1-4a12,0.833147,-0.544830,0.000000,0.000000,0.000000,0.000000
swt_28-2-1a10b,0.000000,0.000000,5.999112,3.691015,0.000000,0.000000
swt_28-3-1a6a,0.000000,0.000000,0.000000,0.000000,5.794852,1.576694
swt_28-1-1f6a,0.314894,-0.175676,0.000000,0.000000,0.000000,0.000000
swt_28-2-1a10a,0.000000,0.000000,13.462420,3.689142,0.000000,0.000000
swt_28-3-1e7,0.000000,0.000000,0.000000,0.000000,0.049298,1.591719
swt_28-7-4g3a,0.000883,1.526883,0.000932,-0.528817,0.000839,3.646445
swt_28-1-4j3b1,0.102673,0.088417,0.000000,0.000000,0.000000,0.000000
swt_28-1-1a28a,1.575952,-0.549134,0.000000,0.000000,0.000000,0.000000
swt_28-2-4b8c,0.000000,0.000000,0.035765,-1.007622,0.000000,0.000000
swt_28-7-3a,42.644323,-0.510974,50.201025,3.682934,65.304392,1.567582
swt_28-1-3e3b,2.303189,-0.507060,0.000000,0.000000,0.000000,0.000000
swt_28_d1_1c1x-a,3.118400,-0.532370,0.000000,0.000000,0.000000,0.000000
swt_28-3-4g1,0.000000,0.000000,0.000000,0.000000,0.058450,1.595839
swt_28-1-1f1a,1.269134,-0.544970,0.000000,0.000000,0.000000,0.000000
swt_28-3-4e2,0.000000,0.000000,0.000000,0.000000,0.593101,1.572894
swt_28-2-1d3,0.000000,0.000000,0.683449,3.658939,0.000000,0.000000
swt_28-2-1f2f,0.000000,0.000000,0.612341,3.785602,0.000000,0.000000
swt_28-3-1e4a,0.000000,0.000000,0.000000,0.000000,0.061209,1.580926
swt_28-1-4d5b,0.821605,-0.461918,0.000000,0.000000,0.000000,0.000000
swt_28-2-1f2,0.000000,0.000000,20.788437,3.671392,0.000000,0.000000
swt_28-2-1d4,0.000000,0.000000,0.895005,3.663642,0.000000,0.000000
swt_28-1-4j3c,1.927617,-0.500820,0.000000,0.000000,0.000000,0.000000
swt_28-3-3c6,0.000000,0.000000,0.000000,0.000000,8.831454,1.554963
swt_28-2-4a9,0.000000,0.000000,0.658964,3.700205,0.000000,0.000000
swt_28-2-3d6b1,0.000000,0.000000,1.366000,3.665722,0.000000,0.000000
swt_28-2-1f2b2,0.000000,0.000000,0.052507,4.556380,0.000000,0.000000
swt_28-7-1a,105.082838,-0.536170,71.323266,3.688423,88.470700,1.579576
swt_28-2-1f2e,0.000000,0.000000,0.987070,3.726732,0.000000,0.000000
swt_28-1-3d6h,0.997575,-0.526652,0.000000,0.000000,0.000000,0.000000
swt_28-7-1a8,0.001616,1.532683,0.001642,-0.549828,0.001620,3.632616
swt_28-1-3e1,0.083057,-0.501796,0.000000,0.000000,0.000000,0.000000
swt_28-1-1f7,9.305132,-0.530465,0.000000,0.000000,0.000000,0.000000
swt_28-1-1d5l,0.643311,-0.554983,0.000000,0.000000,0.000000,0.000000
swt_28-1-4d5a2,1.086846,-0.534637,0.000000,0.000000,0.000000,0.000000
swt_28-2-1a1a,0.000000,0.000000,0.017979,3.759703,0.000000,0.000000
swt_28-2-1f2g,0.000000,0.000000,0.644246,3.736122,0.000000,0.000000
swt_28-3-3c,0.000000,0.000000,0.000000,0.000000,25.934677,1.558162
swt_28-3-1e3b,0.000000,0.000000,0.000000,0.000000,0.770923,1.641433
swt_28-3-3d6g,0.000000,0.000000,0.000000,0.000000,0.402204,1.556380
swt_28-1-4d7,0.030028,1.186929,0.000000,0.000000,0.000000,0.000000
swt_28-3-1e2,0.000000,0.000000,0.000000,0.000000,2.233811,1.565718
swt_28-1-1f7c2,2.206304,-0.462902,0.000000,0.000000,0.000000,0.000000
swt_28_d1_1ax-a,105.082941,-0.536172,71.323364,3.688420,88.470798,1.579574
swt_28_d1_3cx-a,0.000000,0.000000,0.000000,0.000000,18.163896,1.555620
swt_28-1-3y6,0.793404,-0.536846,0.000000,0.000000,0.000000,0.000000
swt_28-2-3b1e,0.000000,0.000000,6.883368,3.670099,0.000000,0.000000
swt_28-1-1c4c,0.255670,-0.549222,0.000000,0.000000,0.000000,0.000000
swt_28-1-3y13,0.051214,-0.512146,0.000000,0.000000,0.000000,0.000000
swt_28-3-1e4c1,0.000000,0.000000,0.000000,0.000000,0.533035,1.564259
swt_28-2-4b8b,0.000000,0.000000,0.302765,3.678417,0.000000,0.000000
swt_28-3-3g1,0.000000,0.000000,0.000000,0.000000,3.710358,1.565951
swt_28-2-3b1c,0.000000,0.000000,0.652813,3.663438,0.000000,0.000000
swt_28-1-3e3a,0.540677,-0.528778,0.000000,0.000000,0.000000,0.000000
swt_28-1-3y20,0.521381,-0.505122,0.000000,0.000000,0.000000,0.000000
swt_28-2-4b1,0.000000,0.000000,0.713072,3.671736,0.000000,0.000000
swt_28-1-1c1b,0.311364,-0.549577,0.000000,0.000000,0.000000,0.000000
swt_28-7-1a50,0.016507,1.522616,0.016992,-0.553687,0.016617,3.631265
swt_28-1-1a28b,1.400070,-0.549755,0.000000,0.000000,0.000000,0.000000
swt_28-3-1a21d,0.000000,0.000000,0.000000,0.000000,0.680610,1.619136
swt_28-3-1f4,0.000000,0.000000,0.000000,0.000000,21.826986,1.572575
swt_28-1-4j2,6.654331,-0.535967,0.000000,0.000000,0.000000,0.000000
swt_28_d1_1ax1-a,43.014110,-0.538887,13.697074,3.687659,25.610675,1.578932
swt_28_d1_3b1ex-a,0.000000,0.000000,1.665234,3.672908,0.000000,0.000000
swt_28-3-3g3,0.000000,0.000000,0.000000,0.000000,0.975339,1.559728
swt_28-1-1a24d,1.355586,-0.549495,0.000000,0.000000,0.000000,0.000000
swt_28_d1_4ax2-a,51.606058,-0.523455,29.911988,3.705114,60.968244,1.587436
swt_28-2-1a10a3,0.000000,0.000000,0.530609,3.665847,0.000000,0.000000
swt_28-3-1a24ca,0.000000,0.000000,0.000000,0.000000,1.266775,1.570331
swt_28-2-4b8e,0.000000,0.000000,1.658783,3.741705,0.000000,0.000000
swt_28-1-1c4e,1.366138,-0.553850,0.000000,0.000000,0.000000,0.000000
swt_28-1-3d4,0.024384,-0.456269,0.000000,0.000000,0.000000,0.000000
swt_28-3-1f4c,0.000000,0.000000,0.000000,0.000000,3.934528,1.570902
swt_28-1-1c1,5.733131,-0.537078,0.000000,0.000000,0.000000,0.000000
swt_28-3-4f1b,0.000000,0.000000,0.000000,0.000000,0.483003,1.579226
swt_28-1-1d5b,1.065623,-0.549015,0.000000,0.000000,0.000000,0.000000
swt_28-1-1c1a,1.245832,-0.545237,0.000000,0.000000,0.000000,0.000000
swt_28-1-3y10,1.112851,-0.479345,0.000000,0.000000,0.000000,0.000000
swt_28-1-1d5d,0.677542,-0.548171,0.000000,0.000000,0.000000,0.000000
swt_28-3-4f1,0.000000,0.000000,0.000000,0.000000,13.735940,1.580284
swt_28-2-4b8,0.000000,0.000000,9.795168,3.701994,0.000000,0.000000
swt_28-2-1d6,0.000000,0.000000,0.656856,3.706600,0.000000,0.000000
swt_28-7-4g3,0.053116,-0.242419,0.822522,3.708794,0.366164,1.619241
swt_28-3-1b1a2,0.000000,0.000000,0.000000,0.000000,0.131836,1.582032
swt_28-1-3e3,7.436665,-0.519582,0.000000,0.000000,0.000000,0.000000
swt_28-2-3e4a,0.000000,0.000000,0.040862,3.707786,0.000000,0.000000
swt_28-3-4h1a1,0.000000,0.000000,0.000000,0.000000,1.837569,1.577906
swt_28-2-1a24a,0.000000,0.000000,1.098018,3.743186,0.000000,0.000000
swt_28_d1_4ax3-a,51.691424,-0.526545,29.995197,3.699629,61.050711,1.584834
swt_28-1-1c2,0.438595,-0.552704,0.000000,0.000000,0.000000,0.000000
swt_28-3-1f4f,0.000000,0.000000,0.000000,0.000000,4.109585,1.566765
swt_28-3-3g,0.000000,0.000000,0.000000,0.000000,13.599661,1.571713
swt_28_d1_3c5x-a,0.000000,0.000000,0.000000,0.000000,0.904981,1.559217
swt_28_d1_3d6x-a,1.251717,-0.515332,0.016962,-0.550573,0.395582,1.588222
swt_28-1-3y21,0.467239,-0.480088,0.000000,0.000000,0.000000,0.000000
swt_28-1-1f5a,0.003254,1.515218,0.000000,0.000000,0.000000,0.000000
swt_28-1-4g2,5.183699,-0.523723,0.000000,0.000000,0.000000,0.000000
swt_28-3-1a26,0.000000,0.000000,0.000000,0.000000,0.160366,1.570479
swt_28-2-3y18,0.000000,0.000000,0.197982,3.671517,0.000000,0.000000
swt_28-1-3d6e,0.596954,-0.521365,0.000000,0.000000,0.000000,0.000000
swt_28-2-3e4b,0.000000,0.000000,1.424635,3.797680,0.000000,0.000000
swt_28-1-1c4,9.257974,-0.550402,0.000000,0.000000,0.000000,0.000000
swt_28-1-4d1,0.028105,-0.495812,0.000000,0.000000,0.000000,0.000000
swt_28-3-4f1e,0.000000,0.000000,0.000000,0.000000,1.526809,1.622504
swt_28-3-1f4g,0.000000,0.000000,0.000000,0.000000,4.741627,1.568391
swt_28-3-1a6b,0.000000,0.000000,0.000000,0.000000,0.482310,1.564549
swt_28-3-3d5,0.000000,0.000000,0.000000,0.000000,0.336584,1.557840
swt_28-1-3y30,0.179728,-0.529563,0.000000,0.000000,0.000000,0.000000
swt_28-2-4b,0.000000,0.000000,25.980148,3.696028,0.000000,0.000000
swt_28-1-1f5e1,0.603522,-0.485295,0.000000,0.000000,0.000000,0.000000
swt_28-3-4a7,0.000000,0.000000,0.000000,0.000000,4.430787,1.568208
swt_28-7-1a24,4.193159,-0.541535,1.539941,3.745226,5.627623,1.573786
swt_28-7-1b,22.827196,-0.539657,6.517283,3.663898,6.148933,1.577733
swt_28-3-3y3,0.000000,0.000000,0.000000,0.000000,0.209326,1.564607
swt_28-1-3y21a,0.467386,-0.480749,0.000000,0.000000,0.000000,0.000000
swt_28-3-1a30,0.000000,0.000000,0.000000,0.000000,0.505013,1.563807
swt_28-1-1c5,1.306319,-0.555127,0.000000,0.000000,0.000000,0.000000
swt_28-1-4g2b,0.399862,-0.458171,0.000000,0.000000,0.000000,0.000000
swt_28-2-3e4,0.000000,0.000000,9.243601,3.687078,0.000000,0.000000
swt_28-1-4d2,0.540356,-0.537861,0.000000,0.000000,0.000000,0.000000
swt_28-2-1a10,0.000000,0.000000,13.461819,3.689230,0.000000,0.000000
swt_28-1-4d5a,3.408693,-0.532901,0.000000,0.000000,0.000000,0.000000
swt_28-1-3a4,1.593939,-0.527728,0.000000,0.000000,0.000000,0.000000
swt_28-3-4f1a,0.000000,0.000000,0.000000,0.000000,4.899003,1.574015
swt_28-1-1a13,0.217164,-0.542288,0.000000,0.000000,0.000000,0.000000
swt_28-2-4a16,0.000000,0.000000,0.718883,3.722186,0.000000,0.000000
swt_28-2-1a10c,0.000000,0.000000,0.293283,3.666417,0.000000,0.000000
swt_28-1-4d5a1,3.411780,-0.534580,0.000000,0.000000,0.000000,0.000000
swt_28-1-3y25,0.674618,-0.533541,0.000000,0.000000,0.000000,0.000000
swt_28-1-4j3c2,0.967904,-0.473459,0.000000,0.000000,0.000000,0.000000
swt_28-2-4b5,0.000000,0.000000,0.173373,3.897839,0.000000,0.000000
swt_28-7-3d,18.480756,-0.516014,21.802035,3.679572,9.677911,1.579027
swt_28-1-1c4a,2.010372,-0.550788,0.000000,0.000000,0.000000,0.000000
swt_28-1-3y10a,1.113092,-0.479801,0.000000,0.000000,0.000000,0.000000
swt_28-2-1d1f,0.000000,0.000000,0.154625,3.679280,0.000000,0.000000
swt_28-3-1a15,0.000000,0.000000,0.000000,0.000000,0.120544,1.587946
swt_28-3-1a31a,0.000000,0.000000,0.000000,0.000000,0.549849,1.563188
swt_28-3-1f4d,0.000000,0.000000,0.000000,0.000000,0.667996,1.613077
swt_28-1-4j2a,0.469689,-0.538464,0.000000,0.000000,0.000000,0.000000
swt_28-2-1a10d,0.000000,0.000000,0.163971,3.678399,0.000000,0.000000
swt_28-2-4b2a,0.000000,0.000000,0.789366,3.669165,0.000000,0.000000
swt_28-1-4a17,1.166796,-0.536028,0.000000,0.000000,0.000000,0.000000
swt_28-1-1d5j,0.572228,-0.553389,0.000000,0.000000,0.000000,0.000000
swt_28-3-3c6a,0.000000,0.000000,0.000000,0.000000,0.635546,1.584161
swt_28-3-3c5,0.000000,0.000000,0.000000,0.000000,4.999206,1.557307
swt_28-2-3y22a,0.000000,0.000000,0.230328,3.758578,0.000000,0.000000
swt_28-2-4b7,0.000000,0.000000,1.612802,3.803767,0.000000,0.000000
swt_28-3-4e7,0.000000,0.000000,0.000000,0.000000,3.527146,1.588752
swt_28-1-1a20a,0.948703,-0.548151,0.000000,0.000000,0.000000,0.000000
swt_28-1-3a6,1.697798,-0.503190,0.000000,0.000000,0.000000,0.000000
swt_28-1-4d5f,0.301832,-0.223220,0.000000,0.000000,0.000000,0.000000
swt_28-7-1d,60.893329,-0.535859,38.948984,3.687994,47.786867,1.578754
swt_28-1-1a19,0.366914,-0.544132,0.000000,0.000000,0.000000,0.000000
swt_28-1-1f3,7.399910,-0.547692,0.000000,0.000000,0.000000,0.000000
swt_28-3-4h,0.000000,0.000000,0.000000,0.000000,16.028880,1.581156
swt_28-3-4a11,0.000000,0.000000,0.000000,0.000000,0.599825,1.583864
swt_28-2-3b1a,0.000000,0.000000,0.844595,3.673095,0.000000,0.000000
swt_28-1-1f3a1,0.562189,-0.551471,0.000000,0.000000,0.000000,0.000000
swt_28-7-3e,9.682565,-0.520292,9.528400,3.688697,2.958331,1.573132
swt_28-2-3b1f,0.000000,0.000000,3.564087,3.696072,0.000000,0.000000
swt_28-1-1f6,0.312734,-0.081771,0.000000,0.000000,0.000000,0.000000
swt_28-2-1a23,0.000000,0.000000,1.913110,3.665707,0.000000,0.000000
swt_28-2-3y28,0.000000,0.000000,1.318358,3.663749,0.000000,0.000000
swt_28-3-3a3,0.000000,0.000000,0.000000,0.000000,0.515140,1.558522
swt_28-1-1f3a,3.408901,-0.551794,0.000000,0.000000,0.000000,0.000000
swt_28-2-1a1b,0.000000,0.000000,0.670555,3.675591,0.000000,0.000000
swt_28-1-4j3,6.606318,-0.516824,0.000000,0.000000,0.000000,0.000000
swt_28-2-1b2d,0.000000,0.000000,1.323718,3.664760,0.000000,0.000000
swt_28-3-1b1,0.000000,0.000000,0.000000,0.000000,5.907212,1.571484
swt_28-3-3y19,0.000000,0.000000,0.000000,0.000000,0.409941,1.554875
swt_28-1-4d5b1,0.833785,-0.493317,0.000000,0.000000,0.000000,0.000000
swt_28-1-1f1,1.268671,-0.544288,0.000000,0.000000,0.000000,0.000000
swt_28-2-3y16,0.000000,0.000000,0.448615,3.669030,0.000000,0.000000
swt_28_d1_1cx2-a,12.023638,-0.550130,0.000000,0.000000,0.000000,0.000000
swt_28-2-3d6b2,0.000000,0.000000,6.333500,3.666319,0.000000,0.000000
swt_28-3-1a6c,0.000000,0.000000,0.000000,0.000000,0.261398,1.577472
swt_28_d1_4ex-a,0.000000,0.000000,0.000000,0.000000,9.288531,1.580124
swt_28-3-4h1,0.000000,0.000000,0.000000,0.000000,7.866182,1.579261
swt_28-1-4a3a,0.087995,-0.511586,0.000000,0.000000,0.000000,0.000000
swt_28-3-1e4b,0.000000,0.000000,0.000000,0.000000,0.061347,1.596818
swt_28-3-1a11b1,0.000000,0.000000,0.000000,0.000000,1.082524,1.651522
swt_28-2-3y14,0.000000,0.000000,0.586069,3.670774,0.000000,0.000000
swt_28-1-1a22,1.068433,-0.550596,0.000000,0.000000,0.000000,0.000000
swt_28-1-1d5i,0.792857,-0.551451,0.000000,0.000000,0.000000,0.000000
swt_28-1-3a2a,3.028976,-0.466291,0.000000,0.000000,0.000000,0.000000
swt_28-2-3y17,0.000000,0.000000,1.309307,3.670003,0.000000,0.000000
swt_28-2-3b1e1,0.000000,0.000000,1.370773,3.670708,0.000000,0.000000
swt_28-7-4g,25.698143,-0.528200,1.151378,3.725595,17.947327,1.584488
swt_28-1-1d5,21.381078,-0.549133,0.000000,0.000000,0.000000,0.000000
swt_28-2-1f2b,0.000000,0.000000,13.068838,3.662368,0.000000,0.000000
swt_28-7-1a31,0.011446,1.516657,0.011998,-0.555160,1.698902,1.570298
swt_28-3-3a38,0.000000,0.000000,0.000000,0.000000,1.857295,1.566219
swt_28-1-4d,18.447625,-0.523881,0.000000,0.000000,0.000000,0.000000
swt_28-2-1d2b,0.000000,0.000000,0.504252,3.664020,0.000000,0.000000
swt_28-2-1a1e,0.000000,0.000000,0.222094,3.707327,0.000000,0.000000
swt_28-2-4b2,0.000000,0.000000,4.491807,3.672707,0.000000,0.000000
swt_28_d1_1fx1-a,28.919395,-0.529134,20.568389,3.692113,21.604681,1.592095
swt_28-2-4b8d,0.000000,0.000000,0.298319,3.794850,0.000000,0.000000
swt_28-1-1c,20.682607,-0.545428,0.000000,0.000000,0.000000,0.000000
swt_28-3-1a6,0.000000,0.000000,0.000000,0.000000,5.794153,1.576922
swt_28-1-1f5c,6.270754,-0.553518,0.000000,0.000000,0.000000,0.000000
swt_28-2-4b8f,0.000000,0.000000,0.817869,3.779602,0.000000,0.000000
swt_28-1-1d5h,0.441157,-0.549115,0.000000,0.000000,0.000000,0.000000
swt_28-2-1a9,0.000000,0.000000,0.575427,3.665335,0.000000,0.000000
swt_28-1-3a6a,0.745792,-0.464302,0.000000,0.000000,0.000000,0.000000
swt_28-7-4a,54.567094,-0.522425,30.665596,3.706499,62.280963,1.588021
swt_28-3-1e6,0.000000,0.000000,0.000000,0.000000,0.316875,1.565886
swt_28-3-3y4,0.000000,0.000000,0.000000,0.000000,0.451829,1.563346
swt_28-2-1a10e,0.000000,0.000000,0.125741,3.674493,0.000000,0.000000
swt_28-3-3g1a,0.000000,0.000000,0.000000,0.000000,0.337564,1.704630
swt_28-1-4g2a,0.751703,-0.482566,0.000000,0.000000,0.000000,0.000000
swt_28-3-4h2,0.000000,0.000000,0.000000,0.000000,2.165715,1.587120
swt_28-3-1a11,0.000000,0.000000,0.000000,0.000000,7.927336,1.578527
swt_28-3-1a24c,0.000000,0.000000,0.000000,0.000000,4.970811,1.567374
swt_28-1-4a17a,0.226512,-0.530016,0.000000,0.000000,0.000000,0.000000
swt_28-2-1a1c,0.000000,0.000000,0.628218,3.674405,0.000000,0.000000
swt_28-7-1f,38.222785,-0.529370,20.566604,3.692286,22.204280,1.591452
swt_28-2-4b3,0.000000,0.000000,0.736319,3.698835,0.000000,0.000000
swt_28-3-3y11,0.000000,0.000000,0.000000,0.000000,0.237935,1.556828
swt_28-1-3d2,3.433387,-0.531045,0.000000,0.000000,0.000000,0.000000
swt_28-3-3a5,0.000000,0.000000,0.000000,0.000000,1.690443,1.555014
swt_28-3-3g2,0.000000,0.000000,0.000000,0.000000,2.145112,1.550442
swt_28-2-1a10g,0.000000,0.000000,0.331124,3.665900,0.000000,0.000000
swt_28-1-1a7,0.391387,-0.522669,0.000000,0.000000,0.000000,0.000000
swt_28-1-1c4b,0.593570,-0.543828,0.000000,0.000000,0.000000,0.000000
swt_28-3-4f,0.000000,0.000000,0.000000,0.000000,17.948208,1.580055
swt_28-3-3e7,0.000000,0.000000,0.000000,0.000000,0.478211,1.617498
swt_28-3-3y2,0.000000,0.000000,0.000000,0.000000,0.924729,1.554430
swt_28-7-1b2,2.153190,-0.489045,4.097329,3.666360,0.248834,1.683683
swt_28-3-4e6,0.000000,0.000000,0.000000,0.000000,0.147269,1.936954
swt_28-1-4d4,0.955525,-0.535390,0.000000,0.000000,0.000000,0.000000
swt_28-7-1a24e,0.032028,1.517282,0.033383,-0.554690,0.032398,3.632825
swt_28-3-1f4a,0.000000,0.000000,0.000000,0.000000,0.019451,1.612529
swt_28-2-4b2d,0.000000,0.000000,0.798212,3.671533,0.000000,0.000000
swt_28-2-4g3b,0.000000,0.000000,0.243740,3.692344,0.000000,0.000000
swt_28-2-1a29,0.000000,0.000000,0.349058,3.664758,0.000000,0.000000
swt_28-1-1c1d,0.961229,-0.497955,0.000000,0.000000,0.000000,0.000000
swt_28-2-1f2b3,0.000000,0.000000,1.478220,3.653766,0.000000,0.000000
swt_29-3yx1-a,2.871745,-0.525456,3.053120,3.673087,1.835525,1.565706
swt_28-1-1a14,0.511830,-0.541311,0.000000,0.000000,0.000000,0.000000
swt_28-1-3d6a2,0.024380,0.856010,0.000000,0.000000,0.000000,0.000000
swt_28-7-1a28,4.436315,-0.548742,0.011259,-0.554815,0.388985,1.591103
swt_28-7-3f,2.873229,-0.526422,2.439017,3.674931,1.836977,1.564207
xf_reg-29984_a,0.000320,1.535208,0.000319,-0.549314,0.000316,3.620206
xf_volt_34_a,54.011265,-0.523011,30.177928,3.705921,60.951803,1.587958
xf_volt_87_a,104.678327,-0.536766,67.013542,3.688522,81.820523,1.579254
xf_e72809603093016_b,0.000000,0.000000,0.781160,3.654836,0.000000,0.000000
xf_e72805203080372_a,0.353620,-0.551292,0.000000,0.000000,0.000000,0.000000
xf_e72805203078797_a,0.485716,-0.555924,0.000000,0.000000,0.000000,0.000000
xf_e72805100039784_c,0.000000,0.000000,0.000000,0.000000,0.451212,1.572782
xf_e72805003081140_a,0.487608,-0.532659,0.000000,0.000000,0.000000,0.000000
xf_e72805203079042_b,0.000000,0.000000,0.089138,3.664405,0.000000,0.000000
xf_e72805200040189_a,0.154743,-0.552821,0.000000,0.000000,0.000000,0.000000
xf_e72805203097976_c,0.000000,0.000000,0.000000,0.000000,0.681992,1.562202
xf_e72805003081320_c,0.000000,0.000000,0.000000,0.000000,0.308977,1.551972
xf_e72805203097904_c,0.000000,0.000000,0.000000,0.000000,0.316765,1.565505
xf_e72805103080174_c,0.000000,0.000000,0.000000,0.000000,0.255880,1.575384
xf_e72805003098658_a,0.088282,-0.528474,0.000000,0.000000,0.000000,0.000000
xf_e72805203079633_c,0.000000,0.000000,0.000000,0.000000,0.155389,1.554810
xf_e72805203079058_b,0.000000,0.000000,0.644246,3.655267,0.000000,0.000000
xf_e72805203101337_c,0.000000,0.000000,0.000000,0.000000,0.263165,1.564887
xf_e72805203079416_b,0.000000,0.000000,0.591146,3.659440,0.000000,0.000000
xf_e72805203079692_b,0.000000,0.000000,0.556382,3.662171,0.000000,0.000000
xf_e72805203105067_c,0.000000,0.000000,0.000000,0.000000,0.542623,1.565408
xf_tran_93057_b,0.000000,0.000000,0.000000,0.000000,0.000000,0.000000
xf_e72805203080291_b,0.000000,0.000000,0.349750,3.661089,0.000000,0.000000
xf_e72805200063882_b,0.000000,0.000000,0.076477,3.667538,0.000000,0.000000
xf_e72805103080212_c,0.000000,0.000000,0.000000,0.000000,0.303755,1.575479
xf_e72805203078895_c,0.000000,0.000000,0.000000,0.000000,0.318936,1.565211
xf_e72805103079981_c,0.000000,0.000000,0.000000,0.000000,0.076114,1.577626
xf_e72804503093294_b,0.000000,0.000000,0.820128,3.650962,0.000000,0.000000
xf_e72805103080107_a,0.268640,-0.542193,0.000000,0.000000,0.000000,0.000000
xf_e72805203079086_b,0.000000,0.000000,0.705734,3.660333,0.000000,0.000000
xf_e72805100043887_c,0.000000,0.000000,0.000000,0.000000,0.484688,1.574428
xf_e103b_d1_18a_b,0.000000,0.000000,0.504800,3.662005,0.000000,0.000000
xf_e72805203079650_c,0.000000,0.000000,0.000000,0.000000,0.794749,1.547535
xf_e72805103079931_a,0.328880,-0.538347,0.000000,0.000000,0.000000,0.000000
xf_e72805203078559_c,0.000000,0.000000,0.000000,0.000000,0.088992,1.566351
xf_e72805200042671_c,0.000000,0.000000,0.000000,0.000000,0.277899,1.553449
xf_e72805203097720_a,0.454495,-0.556311,0.000000,0.000000,0.000000,0.000000
xf_e72809600039608_c,0.000000,0.000000,0.000000,0.000000,0.682983,1.569934
xf_e72805203078839_a,0.520407,-0.556946,0.000000,0.000000,0.000000,0.000000
xf_e72805203103784_c,0.000000,0.000000,0.000000,0.000000,0.038774,1.568675
xf_e102e_d1_11_a,0.560892,-0.554138,0.000000,0.000000,0.000000,0.000000
xf_e100c_d1_15_d1_v1_c,0.000000,0.000000,0.000000,0.000000,0.833923,1.571610
xf_e72805203079514_a,0.636456,-0.531233,0.000000,0.000000,0.000000,0.000000
xf_e72805203080310_a,0.000000,1.529517,0.000000,0.000000,0.000000,0.000000
xf_e72805203078743_c,0.000000,0.000000,0.000000,0.000000,0.482541,1.561034
xf_e72804500063287_c,0.000000,0.000000,0.000000,0.000000,0.161063,1.569006
xf_e72805000063423_b,0.000000,0.000000,0.126973,3.665782,0.000000,0.000000
xf_e72805203102331_a,0.761092,-0.557525,0.000000,0.000000,0.000000,0.000000
xf_e72805003081416_c,0.000000,0.000000,0.000000,0.000000,0.004341,1.554431
xf_e72805203079158_c,0.000000,0.000000,0.000000,0.000000,0.511680,1.560205
xf_e101b_d1_2x_c,0.000000,0.000000,0.000000,0.000000,0.786080,1.549054
xf_e72805003103025_b,0.000000,0.000000,0.345100,3.664083,0.000000,0.000000
xf_e72805203079498_a,0.804521,-0.532099,0.000000,0.000000,0.000000,0.000000
xf_e72805200061408_b,0.000000,0.000000,0.703726,3.663968,0.000000,0.000000
xf_e72805203098777_a,0.000000,1.529455,0.000000,0.000000,0.000000,0.000000
xf_e72805103080155_c,0.000000,0.000000,0.000000,0.000000,0.636051,1.577754
xf_e72805000042964_a,0.525196,-0.534468,0.000000,0.000000,0.000000,0.000000
xf_e72805203098777_b,0.000000,0.000000,0.000000,-0.554293,0.000000,0.000000
xf_e72805203079430_b,0.000000,0.000000,0.576191,3.662897,0.000000,0.000000
xf_e72805003081304_b,0.000000,0.000000,0.623260,3.661364,0.000000,0.000000
xf_e72805203079260_c,0.000000,0.000000,0.000000,0.000000,0.304967,1.560640
xf_e102e_d1_52_a,0.375137,-0.552700,0.000000,0.000000,0.000000,0.000000
xf_e72805000039723_b,0.000000,0.000000,0.475235,3.663137,0.000000,0.000000
xf_e72805003081246_a,0.214198,-0.529359,0.000000,0.000000,0.000000,0.000000
xf_e72805203095585_a,0.204696,-0.548506,0.000000,0.000000,0.000000,0.000000
xf_e72805203079286_c,0.000000,0.000000,0.000000,0.000000,0.826066,1.554159
xf_e72805103095265_c,0.000000,0.000000,0.000000,0.000000,0.428591,1.573151
xf_e72805203078805_a,0.297617,-0.551364,0.000000,0.000000,0.000000,0.000000
xf_e72805103095321_c,0.000000,0.000000,0.000000,0.000000,0.147622,1.579326
...